4
Lattice="11.627662 0.0 0.0 0.0 11.409596 0.0 0.0 0.0 10.388297" Properties=species:S:1:pos:R:3:magmoms:R:1:forces:R:3 energy=-18.986512227883296 free_energy=-18.986512227883296 dipole="-6.514099190993918e-15 -0.007355672359032104 -0.31410285659557874" magmom=0.0 pbc="F F F"
N        5.81383100       5.50777370       5.39200126       0.00000000       0.00000000      -0.00195245       0.00216596
H        5.81383100       6.44092531       4.96663825       0.00000000       0.00000000       0.00099828      -0.00287849
H        6.63064567       5.02635559       5.00063756       0.00000000      -0.00170109       0.00199550      -0.00120541
H        4.99701633       5.02635559       5.00063756       0.00000000       0.00170109       0.00199550      -0.00120541
12
Lattice="14.299574 0.0 0.0 0.0 14.96472 0.0 0.0 0.0 10.0" Properties=species:S:1:pos:R:3:magmoms:R:1:forces:R:3 energy=-75.8988228298337 free_energy=-75.8988228298337 dipole="3.770992326422696e-14 -1.553042514148194e-15 4.350231943549009e-14" magmom=0.0 pbc="F F F"
C        7.14978700       8.88003625       5.00000000       0.00000000       0.00000000       0.00019904       0.00000000
C        8.36020599       8.18117548       5.00000000       0.00000000       0.00086177       0.00137235       0.00000000
C        8.36020599       6.78354452       5.00000000       0.00000000       0.00086177      -0.00137235       0.00000000
C        7.14978700       6.08468375       5.00000000       0.00000000      -0.00000000      -0.00019904       0.00000000
C        5.93936801       6.78354452       5.00000000       0.00000000      -0.00086177      -0.00137235       0.00000000
C        5.93936801       8.18117548       5.00000000       0.00000000      -0.00086177       0.00137235       0.00000000
H        7.14978700       9.97191146       5.00000000       0.00000000       0.00000000      -0.00015131       0.00000000
H        9.30581185       8.72714437       5.00000000       0.00000000      -0.00065003      -0.00055137       0.00000000
H        9.30581185       6.23757563       5.00000000       0.00000000      -0.00065003       0.00055137       0.00000000
H        7.14978700       4.99280854       5.00000000       0.00000000       0.00000000       0.00015131       0.00000000
H        4.99376215       6.23757563       5.00000000       0.00000000       0.00065003       0.00055137       0.00000000
H        4.99376215       8.72714437       5.00000000       0.00000000       0.00065003      -0.00055137       0.00000000
2
Lattice="10.0 0.0 0.0 0.0 10.0 0.0 0.0 0.0 11.15034" Properties=species:S:1:pos:R:3:magmoms:R:1:forces:R:3 energy=-14.678832074012183 free_energy=-14.678832074012183 dipole="1.328167139181005e-14 1.3062078530572197e-14 0.04176865125894911" magmom=0.0 pbc="F F F"
O        5.00000000       5.00000000       6.14391937       0.00000000       0.00000000       0.00000000      -0.00657713
C        5.00000000       5.00000000       5.00543932       0.00000000       0.00000000       0.00000000      -0.00806382
3
Lattice="10.0 0.0 0.0 0.0 10.0 0.0 0.0 0.0 12.357316" Properties=species:S:1:pos:R:3:magmoms:R:1:forces:R:3 energy=-22.72697685141314 free_energy=-22.72697685141314 dipole="2.026875447145817e-14 2.0083328405198103e-14 -2.995706619024574e-14" magmom=0.0 pbc="F F F"
C        5.00000000       5.00000000       6.17865800       0.00000000      -0.00000000      -0.00000000       0.00000000
O        5.00000000       5.00000000       7.35187635       0.00000000       0.00000000       0.00000000      -0.00859972
O        5.00000000       5.00000000       5.00543965       0.00000000       0.00000000       0.00000000       0.00859972
8
Lattice="11.764886 0.0 0.0 0.0 12.037914 0.0 0.0 0.0 12.314458" Properties=species:S:1:pos:R:3:magmoms:R:1:forces:R:3 energy=-40.433638618815834 free_energy=-40.43363861889597 dipole="-2.205999946098907e-15 -1.2919898821947498e-14 -7.969786944034314e-15" magmom=0.0 pbc="F F F"
C        5.88244300       6.01912238       6.92137692       0.00000000       0.00000000       0.00043376       0.00179308
C        5.88244300       6.01879162       5.39308108       0.00000000       0.00000000      -0.00043376      -0.00179308
H        5.88244300       7.04246683       7.32442878       0.00000000       0.00000000       0.00063549      -0.00132503
H        4.99627115       5.50743593       7.32456080       0.00000000      -0.00037428       0.00045123      -0.00038153
H        6.76861485       5.50743593       7.32456080       0.00000000       0.00037428       0.00045123      -0.00038153
H        5.88244300       4.99544717       4.99002922       0.00000000       0.00000000      -0.00063549       0.00132503
H        4.99627115       6.53047807       4.98989720       0.00000000      -0.00037428      -0.00045123       0.00038153
H        6.76861485       6.53047807       4.98989720       0.00000000       0.00037428      -0.00045123       0.00038153
9
Lattice="14.062514 0.0 0.0 0.0 12.244741999999999 0.0 0.0 0.0 11.773866" Properties=species:S:1:pos:R:3:magmoms:R:1:forces:R:3 energy=-46.636077867148956 free_energy=-46.63607786714899 dipole="0.005814049442188353 0.31875990686814 -4.800957378435861e-14" magmom=0.0 pbc="F F F"
C        8.23575259       5.62144931       5.88693300       0.00000000       0.00540694      -0.00581638       0.00000000
C        6.99216820       6.48866185       5.88693300       0.00000000       0.00163861      -0.00239886       0.00000000
O        5.84651676       5.62101690       5.88693300       0.00000000      -0.00791523      -0.00279349       0.00000000
H        5.04863029       6.17908627       5.88693300       0.00000000      -0.00431002      -0.00415202       0.00000000
H        6.98387845       7.14212514       6.77964080       0.00000000      -0.00589217      -0.00197468      -0.00035762
H        6.98387845       7.14212514       4.99422520       0.00000000      -0.00589217      -0.00197468       0.00035762
H        9.14023809       6.24661461       5.88693300       0.00000000      -0.00526357       0.00223156       0.00000000
H        8.25897651       4.97773190       6.77743229       0.00000000      -0.00072915      -0.00197938       0.00255655
H        8.25897651       4.97773190       4.99643371       0.00000000      -0.00072915      -0.00197938      -0.00255655
6
Lattice="11.896428 0.0 0.0 0.0 12.185504 0.0 0.0 0.0 11.151965" Properties=species:S:1:pos:R:3:magmoms:R:1:forces:R:3 energy=-29.178566662963068 free_energy=-29.178566662978405 dipole="1.272204849650048e-15 7.762617118779835e-15 0.40209761666552185" magmom=0.0 pbc="F F F"
N        5.85933435       6.81410616       5.18164935       0.00000000       0.00592543       0.00076897      -0.00042197
N        6.03709365       5.37139784       5.18164935       0.00000000      -0.00592543      -0.00076897      -0.00042197
H        6.02107399       7.21123904       6.11575752       0.00000000       0.00231754      -0.00093595       0.00055810
H        4.87429068       6.98258205       4.95909767       0.00000000      -0.00659953      -0.00152051       0.00479360
H        5.87535401       4.97426496       6.11575752       0.00000000      -0.00231754       0.00093595       0.00055810
H        7.02213732       5.20292195       4.95909767       0.00000000       0.00659953       0.00152051       0.00479360
2
Lattice="10.0 0.0 0.0 0.0 10.0 0.0 0.0 0.0 10.737166" Properties=species:S:1:pos:R:3:magmoms:R:1:forces:R:3 energy=-6.751337732416908 free_energy=-6.751337732416908 dipole="3.078783701254567e-15 3.1271380584386693e-15 5.397943364411722e-16" magmom=0.0 pbc="F F F"
H        5.00000000       5.00000000       5.74477833       0.00000000      -0.00000000      -0.00000000      -0.00139297
H        5.00000000       5.00000000       4.99238767       0.00000000       0.00000000       0.00000000       0.00139297
5
Lattice="11.258236 0.0 0.0 0.0 11.258236 0.0 0.0 0.0 11.258236" Properties=species:S:1:pos:R:3:magmoms:R:1:forces:R:3 energy=-23.995413394866954 free_energy=-23.99541339486747 dipole="-4.9858415610351e-15 -6.2304734273690935e-15 -3.4538470073641046e-15" magmom=0.0 pbc="F F F"
C        5.62911800       5.62911800       5.62911800       0.00000000      -0.00000000       0.00000000       0.00000000
H        6.26211234       6.26211234       6.26211234       0.00000000       0.00155689       0.00155689       0.00155689
H        4.99612366       4.99612366       6.26211234       0.00000000      -0.00155689      -0.00155689       0.00155689
H        6.26211234       4.99612366       4.99612366       0.00000000       0.00155689      -0.00155689      -0.00155689
H        4.99612366       6.26211234       4.99612366       0.00000000      -0.00155689       0.00155689      -0.00155689
6
Lattice="11.971529 0.0 0.0 0.0 12.128834000000003 0.0 0.0 0.0 11.783544" Properties=species:S:1:pos:R:3:magmoms:R:1:forces:R:3 energy=-30.000746568663963 free_energy=-30.000746568693863 dipole="0.27120503305270094 0.18973089513540128 2.286562226022791e-15" magmom=0.0 pbc="F F F"
C        6.05603774       6.63269273       5.89177200       0.00000000       0.00126795      -0.00058927       0.00000000
O        6.07408476       5.20352449       5.89177200       0.00000000       0.00304385      -0.00557424       0.00000000
H        5.00042945       6.93323264       5.89177200       0.00000000       0.00162870      -0.00025796       0.00000000
H        7.00392715       4.91637901       5.89177200       0.00000000      -0.00028651       0.00042621       0.00000000
H        6.53727102       7.05827407       6.78983865       0.00000000      -0.00026433      -0.00044948       0.00142263
H        6.53727102       7.05827407       4.99370535       0.00000000      -0.00026433      -0.00044948      -0.00142263
2
Lattice="10.0 0.0 0.0 0.0 10.0 0.0 0.0 0.0 11.12998" Properties=species:S:1:pos:R:3:magmoms:R:1:forces:R:3 energy=-15.807005380919842 free_energy=-15.807005380919842 dipole="1.4731357850080682e-14 1.482822231658159e-14 4.2612059918472476e-15" magmom=0.0 pbc="F F F"
N        5.00000000       5.00000000       6.11915864       0.00000000       0.00000000       0.00000000      -0.00565373
N        5.00000000       5.00000000       5.01082136       0.00000000       0.00000000       0.00000000       0.00565373
2
Lattice="10.0 0.0 0.0 0.0 10.0 0.0 0.0 0.0 11.245956" Properties=species:S:1:pos:R:3:initial_magmoms:R:1:magmoms:R:1:forces:R:3 energy=-9.624098762750295 free_energy=-9.62409876300368 dipole="1.5340176912258675e-14 1.481988274067083e-14 -3.362643220071942e-15" magmom=2.0000578872621415 pbc="F F F"
O        5.00000000       5.00000000       6.23158203       1.00000000       0.62514153       0.00000000       0.00000000      -0.00764154
O        5.00000000       5.00000000       5.01437397       1.00000000       0.62514153       0.00000000       0.00000000       0.00764154
11
Lattice="11.767237999999999 0.0 0.0 0.0 14.3323 0.0 0.0 0.0 12.149118" Properties=species:S:1:pos:R:3:magmoms:R:1:forces:R:3 energy=-56.936503023168285 free_energy=-56.936503023232746 dipole="-1.0798561484827531e-14 1.604792110161422e-14 0.02021470473476824" magmom=0.0 pbc="F F F"
C        5.88361900       7.16615000       6.49416542       0.00000000       0.00000000       0.00000000      -0.00520937
C        5.88361900       8.43807080       5.64534680       0.00000000      -0.00000000       0.00254248      -0.00323157
C        5.88361900       5.89422920       5.64534680       0.00000000      -0.00000000      -0.00254248      -0.00323157
H        5.00359644       7.16615000       7.15855847       0.00000000      -0.00099776       0.00000000      -0.00248727
H        6.76364156       7.16615000       7.15855847       0.00000000       0.00099776       0.00000000      -0.00248727
H        5.88361900       9.34577089       6.26624128       0.00000000       0.00000000      -0.00033762       0.00359020
H        5.88361900       4.98652911       6.26624128       0.00000000       0.00000000       0.00033762       0.00359020
H        6.77063788       8.47842827       4.99405696       0.00000000      -0.00065168       0.00530986       0.00126194
H        4.99660012       8.47842827       4.99405696       0.00000000       0.00065168       0.00530986       0.00126194
H        4.99660012       5.85387173       4.99405696       0.00000000       0.00065168      -0.00530986       0.00126194
H        6.77063788       5.85387173       4.99405696       0.00000000      -0.00065168      -0.00530986       0.00126194
11
Lattice="10.0 0.0 0.0 0.0 14.310586 0.0 0.0 0.0 13.897724" Properties=species:S:1:pos:R:3:magmoms:R:1:forces:R:3 energy=-70.6159620728441 free_energy=-70.6159620728441 dipole="4.404734970887652e-14 -8.091082996076579e-14 -0.4685209274090261" magmom=0.0 pbc="F F F"
N        5.00000000       7.15529300       8.87693391       0.00000000       0.00000000       0.00000000      -0.00257238
C        5.00000000       7.15529300       6.06301958       0.00000000       0.00000000       0.00000000      -0.00611519
C        5.00000000       8.29916964       8.17288938       0.00000000       0.00000000      -0.00449496       0.00097537
C        5.00000000       6.01141636       8.17288938       0.00000000       0.00000000       0.00449496       0.00097537
C        5.00000000       5.95633236       6.77657669       0.00000000       0.00000000      -0.00319682       0.00784845
C        5.00000000       8.35425364       6.77657669       0.00000000       0.00000000       0.00319682       0.00784845
H        5.00000000       7.15529300       4.97124132       0.00000000       0.00000000       0.00000000      -0.00223096
H        5.00000000       9.22218367       8.76143686       0.00000000       0.00000000       0.00152842       0.00213419
H        5.00000000       5.08840233       8.76143686       0.00000000       0.00000000      -0.00152842       0.00213419
H        5.00000000       4.99252720       6.26439459       0.00000000      -0.00000000       0.00026887      -0.00060924
H        5.00000000       9.31805880       6.26439459       0.00000000       0.00000000      -0.00026887      -0.00060924
3
Lattice="10.0 0.0 0.0 0.0 11.526478000000001 0.0 0.0 0.0 10.596309" Properties=species:S:1:pos:R:3:magmoms:R:1:forces:R:3 energy=-14.036672977099906 free_energy=-14.036672977099919 dipole="1.0857782300863456e-14 1.2987784131456636e-15 -0.37773228011794474" magmom=0.0 pbc="F F F"
O        5.00000000       5.76323900       5.60022540       0.00000000       0.00000000       0.00000000       0.00120612
H        5.00000000       6.52909245       4.99834526       0.00000000       0.00000000       0.00499908       0.00614031
H        5.00000000       4.99738555       4.99834526       0.00000000       0.00000000      -0.00499908       0.00614031
